30
	Energy:      59.4057892
C         -2.00022        2.63511       -0.31075
C         -2.16138        1.97437        0.93110
C         -2.19918        4.04279       -0.37400
C         -2.41456        2.70219        2.10081
C         -2.53620        4.08687        2.04998
C         -2.41766        4.75984        0.82723
H         -2.51637        2.18906        3.05591
H         -2.72510        4.64287        2.96697
C         -2.54321        6.23722        0.89447
C         -2.15986        4.76269       -1.70075
C         -2.07197        0.50241        1.09918
O         -2.83721       -0.10868        0.16202
O         -1.47272       -0.03793        2.01393
O         -3.38462        6.81382        1.56333
O         -1.52787        6.81131        0.20413
C         -2.87593       -1.53052        0.28739
H         -3.49648       -1.92511       -0.52189
H         -3.32686       -1.81826        1.24227
H         -1.87059       -1.95235        0.18987
C         -1.51905        8.23760        0.27144
H         -0.68384        8.60019       -0.33411
H         -1.36999        8.57071        1.30325
H         -2.44742        8.64747       -0.13875
C         -1.64011        1.85593       -1.55302
H         -1.04083        0.97133       -1.31498
H         -1.01515        2.44931       -2.22815
H         -2.54682        1.54788       -2.08213
H         -2.55337        4.13479       -2.50665
H         -1.13334        5.05409       -1.94253
H         -2.79797        5.65216       -1.69625
