24
	Energy:      44.2552304
C         -2.17714        2.63099       -0.22203
C         -2.36083        1.95553        0.99245
C         -2.10227        4.02917       -0.24933
C         -2.46897        2.69429        2.17840
C         -2.39447        4.09087        2.15109
C         -2.21035        4.76713        0.93754
H         -2.61194        2.18627        3.13114
H         -2.48070        4.64797        3.08300
C         -2.13729        6.25417        0.96476
H         -1.95942        4.52726       -1.20575
C         -2.44652        0.47136        1.07769
O         -2.33064       -0.08613       -0.15329
O         -2.60071       -0.13523        2.12575
O         -2.23976        6.91486        1.98609
O         -1.94314        6.74670       -0.28395
C         -2.40395       -1.51273       -0.15251
H         -2.30530       -1.85715       -1.18566
H         -3.37224       -1.84703        0.23306
H         -1.58388       -1.93816        0.43439
C         -1.85961        8.17171       -0.33816
H         -1.69630        8.46170       -1.37979
H         -1.01402        8.52965        0.25756
H         -2.79568        8.62352        0.00474
H         -2.08998        2.08363       -1.15799
