27
	Energy:      50.9848384
C         -2.08057        2.66540       -0.24430
C         -2.31101        1.96902        0.96260
C         -2.05665        4.07823       -0.22190
C         -2.47711        2.70003        2.15469
C         -2.43349        4.09630        2.16112
C         -2.22411        4.79566        0.97142
H         -2.64070        2.17900        3.09815
H         -2.56113        4.63086        3.10110
C         -2.17572        6.28340        1.02969
H         -1.89259        4.61854       -1.15341
C         -2.36118        0.48221        1.11711
O         -2.64935       -0.14232       -0.04802
O         -2.19804       -0.07595        2.19235
O         -2.31154        6.92100        2.06058
O         -1.95678        6.80497       -0.20357
C         -2.66469       -1.56880        0.04039
H         -2.68448       -1.97050       -0.97647
H         -3.56414       -1.90081        0.56687
H         -1.76379       -1.94535        0.53660
C         -1.88336        8.23145       -0.22334
H         -1.71941        8.54761       -1.25723
H         -1.04112        8.57934        0.38300
H         -2.82260        8.66995        0.12813
C         -1.86980        1.99128       -1.57319
H         -1.15625        1.16620       -1.48988
H         -1.44571        2.68529       -2.30779
H         -2.82396        1.63078       -1.97018
